%nproc=36
%mem=70GB
%chk=TNA_Nitroso_Azodioxy_freq.chk
#P B3LYP/6-311++G(d,p) freq(noraman) SCF=YQC NoSymm EmpiricalDispersion=GD3

Restart from TNA_Nitroso_Azodioxy_b3lyp.log

0 1
 C   3.540381   4.687485   1.385489
 C  -3.480173  -1.337081   4.351586
 C   3.515736  -4.364288  -1.635054
 C  -3.445572   1.710332  -4.638156
 C   2.685113   4.160043   2.348784
 C  -2.638317  -2.308177   3.817056
 C   2.669289  -3.830829  -2.602812
 C  -2.599723   2.675446  -4.099108
 C   1.866885   3.084839   2.011448
 C  -1.787885  -1.964022   2.769349
 C   1.857122  -2.749687  -2.269827
 C  -1.757348   2.325283  -3.046890
 C   1.863193   2.531706   0.725817
 C  -1.768898  -0.675293   2.223737
 C   1.850785  -2.196363  -0.984287
 C  -1.750377   1.036453  -2.501229
 C   2.740434   3.089460  -0.217843
 C  -2.634077   0.275921   2.787486
 C   2.719103  -2.760286  -0.036053
 C  -2.619273   0.091396  -3.069597
 C   3.581197   4.144304   0.101484
 C  -3.471745  -0.036952   3.846759
 C   3.553864  -3.821218  -0.350922
 C  -3.449047   0.410184  -4.133307
 H   2.644825   4.580824   3.341580
 H  -2.647900  -3.317754   4.197850
 H   2.631080  -4.251468  -3.595751
 H  -2.600114   3.685062  -4.479913
 H   1.219658   2.690127   2.782273
 H  -1.140224  -2.736622   2.378836
 H   1.216745  -2.350425  -3.044022
 H  -1.106334   3.093296  -2.652920
 H   2.781423   2.691050  -1.224307
 H  -2.657331   1.287315   2.400314
 H   2.757760  -2.362045   0.970570
 H  -2.651768  -0.919803  -2.682584
 H   4.278018   4.547181  -0.620689
 H  -4.111872   0.709159   4.297293
 H   4.244026  -4.229010   0.374880
 H  -4.092034  -0.331382  -4.587258
 N   4.508819   5.732572   1.660068
 N   4.195228   6.712622   2.497669
 C   5.200036   7.704992   2.841786
 C   4.725877   9.001893   3.033495
 C   5.611545   9.993126   3.442352
 C   6.949277   9.682336   3.682625
 C   7.402231   8.374535   3.508425
 C   6.535139   7.375408   3.077632
 H   3.676638   9.208965   2.873361
 H   5.252444   11.006070   3.580525
 H   7.636722   10.455310   4.006286
 H   8.439583   8.127728   3.701317
 H   6.890328   6.368960   2.917120
 N  -4.323279  -1.558660   5.511612
 N  -4.915459  -2.734523   5.675889
 C  -5.685716  -2.982581   6.883420
 C  -6.818904  -3.778599   6.722503
 C  -7.565897  -4.127608   7.842424
 C  -7.166592  -3.707182   9.110361
 C  -6.017055  -2.930604   9.256211
 C  -5.270791  -2.552879   8.144363
 H  -7.087513  -4.119699   5.732095
 H  -8.455251  -4.734956   7.722913
 H  -7.747393  -3.984625   9.982441
 H  -5.699613  -2.608034   10.240794
 H  -4.396222  -1.929931   8.253381
 N   4.477994  -5.416387  -1.904525
 N   4.161562  -6.394362  -2.743479
 C   5.160896  -7.394062  -3.082270
 C   4.678372  -8.687577  -3.275971
 C   5.558921  -9.685296  -3.680080
 C   6.900044  -9.384222  -3.913730
 C   7.361527  -8.079658  -3.737652
 C   6.499500  -7.074172  -3.311516
 H   3.626879  -8.887034  -3.121041
 H   5.193236  -10.695677  -3.819751
 H   7.583520  -10.162234  -4.233705
 H   8.401585  -7.840391  -3.925410
 H   6.861109  -6.070250  -3.149521
 N  -4.280870   1.937826  -5.802676
 N  -4.863629   3.117920  -5.970275
 C  -5.625594   3.371331  -7.181949
 C  -6.753824   4.175577  -7.027227
 C  -7.492268   4.529759  -8.151188
 C  -7.089247   4.106186  -9.416900
 C  -5.944605   3.321268  -9.556470
 C  -5.207056   2.938375  -8.440583
 H  -7.025245   4.518820  -6.038328
 H  -8.377823   5.143561  -8.036538
 H  -7.663351   4.387649  -10.292121
 H  -5.624249   2.996201  -10.539286
 H  -4.336462   2.309071  -8.544813
 O   5.620508   5.706647   1.050023
 O   3.026088   6.841390   2.971237
 O   2.993927  -6.514804  -3.222917
 O   5.586749  -5.398322  -1.288882
 O  -4.471083   0.978812  -6.610600
 O  -4.819778   4.019518  -5.079790
 O  -4.873386  -3.636287   4.785485
 O  -4.510857  -0.598386   6.318653
 C   0.953664  -1.020760  -0.588770
 C   0.064505  -0.539251  -1.753468
 C  -0.852805   0.634691  -1.328109
 H   0.684259  -0.213004  -2.595026
 H  -0.549101  -1.370557  -2.109115
 C  -1.733027   0.180461  -0.138686
 C  -0.862336  -0.279945   1.055369
 H  -2.383268   1.008443   0.156078
 H  -2.387529  -0.642917  -0.436894
 C   0.028622  -1.445401   0.579360
 H   0.637336  -1.801875   1.414127
 H  -0.589678  -2.286315   0.249128
 C   1.832255   0.167786  -0.129328
 C   0.043895   1.793776  -0.847413
 C   0.959759   1.362575   0.325541
 H   0.659513   2.145895  -1.678958
 H  -0.570104   2.639095  -0.520415
 C   0.061058   0.887451   1.485532
 H   2.481591  -0.130395   0.698122
 H   2.488028   0.461320  -0.953355
 H   0.674020   0.556821   2.330349
 H  -0.548452   1.723140   1.837943






