%nproc=36
%mem=70GB
%chk=TNM_Nitroso_Azodioxy_freq.chk
#P B3LYP/6-311++G(d,p) freq(noraman) SCF=YQC NoSymm EmpiricalDispersion=GD3

Restart from TNM_Nitroso_Azodioxy_b3lyp.log

0 1
 C   0.152839  -0.032246   0.026291
 C   3.010248   3.127435   0.913838
 C  -2.775118  -0.890557   3.121336
 C   2.986719  -3.226355  -0.792313
 C  -2.688609   0.863883  -3.137997
 C   2.184290   2.662237   1.933387
 C  -1.968916  -1.924491   2.655678
 C   2.191869  -2.753083  -1.831693
 C  -1.880072   1.887152  -2.653146
 C   1.255746   1.660304   1.651615
 C  -0.997325  -1.646392   1.696571
 C   1.271373  -1.739330  -1.574114
 C  -0.935518   1.596425  -1.671037
 C   1.118092   1.128939   0.369477
 C  -0.827028  -0.360238   1.180141
 C   1.111140  -1.205937  -0.293846
 C  -0.794621   0.308333  -1.150635
 C   1.986819   1.596349  -0.629694
 C  -1.675791   0.653927   1.649884
 C   1.948455  -1.684425   0.725582
 C  -1.645352  -0.694584  -1.640562
 C   2.926092   2.578012  -0.369065
 C  -2.625383   0.405945   2.626575
 C   2.881244  -2.679622   0.487828
 C  -2.567998  -0.434311  -2.639611
 H   2.253685   3.067518   2.929476
 H  -2.097774  -2.932788   3.017549
 H   2.275644  -3.166396  -2.824860
 H  -1.986919   2.896967  -3.017882
 H   0.636809   1.301595   2.462067
 H  -0.382520  -2.463005   1.344928
 H   0.675547  -1.372820  -2.398236
 H  -0.318719   2.405006  -1.304601
 H   1.935708   1.172072  -1.624902
 H  -1.594947   1.653681   1.241441
 H   1.879313  -1.258629   1.719025
 H  -1.587646  -1.695177  -1.230246
 H   3.610348   2.915431  -1.134905
 H  -3.252031   1.197039   3.014742
 H   3.543271  -3.028175   1.268403
 H  -3.195672  -1.217155  -3.042546
 N   4.070665   4.101819   1.102672
 N   3.904522   5.107869   1.954324
 C   4.966825   6.086682   2.130427
 C   5.117581   6.572700   3.430026
 C   6.060015   7.563077   3.679792
 C   6.823325   8.083699   2.634975
 C   6.643128   7.606529   1.337832
 C   5.720480   6.597872   1.072981
 H   4.489817   6.178559   4.217226
 H   6.191101   7.932992   4.689765
 H   7.554024   8.859984   2.830759
 H   7.227820   8.014470   0.521786
 H   5.596617   6.214095   0.072995
 N  -3.735320  -1.047152   4.197732
 N  -4.436612  -2.169793   4.290501
 C  -5.333463  -2.360096   5.418326
 C  -6.506917  -3.060953   5.142855
 C  -7.381279  -3.352903   6.183983
 C  -7.070243  -2.971596   7.488548
 C  -5.880965  -2.291329   7.750233
 C  -5.005552  -1.970596   6.717459
 H  -6.708204  -3.374579   4.127722
 H  -8.301447  -3.885471   5.974881
 H  -7.750854  -3.204631   8.299273
 H  -5.632563  -1.999669   8.763846
 H  -4.097931  -1.421211   6.915182
 N   4.041148  -4.206170  -0.974380
 N   3.866719  -5.202730  -1.833516
 C   4.958653  -6.129697  -2.079981
 C   4.585840  -7.453562  -2.308301
 C   5.565569  -8.386816  -2.629310
 C   6.897688  -7.992394  -2.747041
 C   7.250233  -6.659001  -2.538172
 C   6.286537  -5.716569  -2.193602
 H   3.541358  -7.726273  -2.244136
 H   5.284815  -9.420142  -2.795059
 H   7.658955  -8.720451  -3.002415
 H   8.283461  -6.347502  -2.635997
 H   6.561965  -4.690015  -2.005943
 N  -3.620649   1.032569  -4.237106
 N  -4.303042   2.165154  -4.348425
 C  -5.170185   2.366237  -5.497444
 C  -6.339123   3.085218  -5.250934
 C  -7.184374   3.387888  -6.312828
 C  -6.848613   2.999083  -7.609025
 C  -5.663891   2.300496  -7.841442
 C  -4.817830   1.968974  -6.787812
 H  -6.559464   3.404052  -4.241397
 H  -8.101092   3.934618  -6.126356
 H  -7.506484   3.240439  -8.435926
 H  -5.396234   2.002838  -8.848388
 H  -3.914221   1.405594  -6.963207
 O   5.121573   3.990539   0.401317
 O   2.860519   5.219815   2.664286
 O   2.755853  -5.403465  -2.410015
 O   5.088306  -4.110841  -0.265625
 O  -3.791898   0.065988  -5.040125
 O  -4.261551   3.061445  -3.453108
 O  -4.387103  -3.064950   3.394475
 O  -3.911506  -0.079351   4.998231






