%nproc=18
%mem=70GB
%chk=TNM_Nitroso_Azodioxy.chk
#P PBE1PBE/6-311++G(d,p) opt SCF=YQC NoSymm

Comment

0 1
 C    0.378290000000000    0.027140000000000    -0.031180000000000
 C    3.100650000000000    3.324090000000000    1.093770000000000
 C    -2.449990000000000    -1.039680000000000    3.215750000000000
 C    3.137460000000000    -3.296730000000000    -1.014670000000000
 C    -2.464230000000000    1.015080000000000    -3.284610000000000
 C    2.068370000000000    2.967370000000000    1.959710000000000
 C    -1.359920000000000    -1.872710000000000    2.953360000000000
 C    2.145660000000000    -2.934870000000000    -1.928760000000000
 C    -1.383750000000000    1.865680000000000    -3.034350000000000
 C    1.188600000000000    1.940740000000000    1.602180000000000
 C    -0.457400000000000    -1.553120000000000    1.928570000000000
 C    1.261550000000000    -1.889380000000000    -1.627080000000000
 C    -0.471290000000000    1.568440000000000    -2.010540000000000
 C    1.314290000000000    1.249620000000000    0.379090000000000
 C    -0.587990000000000    -0.372330000000000    1.174500000000000
 C    1.351820000000000    -1.170190000000000    -0.418570000000000
 C    -0.583420000000000    0.393990000000000    -1.245240000000000
 C    2.388660000000000    1.632530000000000    -0.466180000000000
 C    -1.677660000000000    0.476470000000000    1.498430000000000
 C    2.407980000000000    -1.523900000000000    0.457530000000000
 C    -1.656450000000000    -0.478130000000000    -1.564670000000000
 C    3.278460000000000    2.654560000000000    -0.115200000000000
 C    -2.593750000000000    0.151550000000000    2.501550000000000
 C    3.288069999999999    -2.569870000000000    0.167300000000000
 C    -2.583490000000000    -0.174360000000000    -2.563910000000000
 H    1.946210000000000    3.464810000000000    2.919070000000000
 H    -1.203140000000000    -2.794940000000000    3.509910000000000
 H    2.030060000000000    -3.459490000000000    -2.875260000000000
 H    -1.244200000000000    2.785940000000000    -3.598500000000000
 H    0.424490000000000    1.686180000000000    2.330430000000000
 H    0.329970000000000    -2.274700000000000    1.733520000000000
 H    0.510390000000000    -1.657050000000000    -2.376980000000000
 H    0.306740000000000    2.302430000000000    -1.823160000000000
 H    2.552460000000000    1.111320000000000    -1.409760000000000
 H    -1.826030000000000    1.410180000000000    0.954530000000000
 H    2.553020000000000    -0.978420000000000    1.390170000000000
 H    -1.788240000000000    -1.410950000000000    -1.014920000000000
 H    4.105850000000000    2.899660000000000    -0.776380000000000
 H    -3.414720000000000    0.833920000000000    2.714990000000000
 H    4.090200000000000    -2.803800000000000    0.864940000000000
 H    -3.395390000000000    -0.870900000000000    -2.767100000000000
 N    4.065250000000000    4.325210000000000    1.515280000000000
 N    3.701480000000001    5.590790000000000    1.406910000000000
 C    4.585780000000000    6.682190000000000    1.861580000000000
 C    3.973310000000000    7.913350000000000    2.166140000000000
 C    4.733930000000000    9.017180000000000    2.559560000000000
 C    6.116400000000000    8.905900000000001    2.663680000000000
 C    6.737430000000000    7.696990000000000    2.359130000000000
 C    5.981540000000000    6.594100000000000    1.942670000000000
 H    2.893060000000000    8.031280000000001    2.085050000000000
 H    4.245630000000000    9.963900000000001    2.777980000000000
 H    6.711120000000000    9.762020000000000    2.972600000000000
 H    7.819190000000000    7.611100000000000    2.437200000000000
 H    6.530560000000000    5.692500000000000    1.687250000000000
 N    -3.430390000000000    -1.331580000000000    4.263520000000000
 N    -3.931770000000000    -2.554610000000000    4.340240000000000
 C    -4.950690000000000    -2.859690000000000    5.351580000000000
 C    -5.965200000000000    -3.762940000000000    4.993030000000001
 C    -6.936400000000000    -4.137930000000000    5.921940000000000
 C    -6.902690000000000    -3.614850000000000    7.212370000000000
 C    -5.887900000000000    -2.732080000000000    7.581220000000000
 C    -4.900510000000000    -2.367300000000000    6.661470000000000
 H    -5.997090000000000    -4.191970000000000    3.992560000000000
 H    -7.714750000000000    -4.842640000000000    5.639540000000001
 H    -7.662810000000000    -3.902020000000000    7.934830000000000
 H    -5.862600000000000    -2.329240000000000    8.591130000000000
 H    -4.112620000000000    -1.696040000000000    6.994890000000000
 N    4.091780000000000    -4.371220000000000    -1.289370000000000
 N    3.614780000000000    -5.556180000000000    -1.639890000000000
 C    4.516650000000000    -6.698030000000000    -1.896110000000000
 C    3.955310000000000    -7.985980000000000    -1.796100000000000
 C    4.716260000000000    -9.125750000000002    -2.064560000000000
 C    6.052470000000000    -8.997579999999999    -2.427930000000000
 C    6.619540000000000    -7.730480000000000    -2.542150000000000
 C    5.853760000000000    -6.583600000000000    -2.298320000000000
 H    2.908830000000000    -8.115769999999999    -1.520970000000000
 H    4.261980000000000    -10.111060000000000    -1.993930000000000
 H    6.649510000000000    -9.883050000000001    -2.631240000000000
 H    7.663820000000000    -7.630680000000000    -2.830530000000000
 H    6.346190000000000    -5.626020000000000    -2.440550000000000
 N    -3.459860000000000    1.287180000000000    -4.323740000000000
 N    -3.978690000000000    2.502330000000000    -4.404710000000000
 C    -5.013160000000000    2.790130000000000    -5.406420000000001
 C    -6.018990000000000    3.704370000000000    -5.050480000000000
 C    -7.003290000000000    4.066450000000000    -5.970800000000000
 C    -6.992840000000000    3.518370000000000    -7.251110000000000
 C    -5.988350000000000    2.623520000000000    -7.618190000000000
 C    -4.987390000000000    2.272180000000000    -6.707550000000000
 H    -6.033790000000000    4.153360000000000    -4.058180000000000
 H    -7.773390000000000    4.780720000000000    -5.689900000000000
 H    -7.762770000000000    3.795560000000000    -7.967010000000000
 H    -5.981020000000000    2.200750000000000    -8.620320000000000
 H    -4.208250000000000    1.591820000000000    -7.042420000000000
 O    5.184410000000000    3.935230000000000    1.996330000000000
 O    2.541910000000000    5.889170000000000    0.933850000000000
 O    2.344630000000000    -5.752410000000000    -1.714390000000000
 O    5.339170000000000    -4.140630000000000    -1.106350000000000
 O    -3.853110000000000    0.318570000000000    -5.068920000000000
 O    -3.646030000000000    3.431320000000000    -3.580720000000000
 O    -3.597640000000000    -3.473390000000000    3.506740000000000
 O    -3.826090000000000    -0.375080000000000    5.021650000000000




